/*--------------------------------*- C++ -*----------------------------------*\
| =========                 |                                                 |
| \\      /  F ield         | OpenFOAM: The Open Source CFD Toolbox           |
|  \\    /   O peration     | Version:  2.4.0                                 |
|   \\  /    A nd           | Web:      www.OpenFOAM.org                      |
|    \\/     M anipulation  |                                                 |
\*---------------------------------------------------------------------------*/
FoamFile
{
    version     2.0;
    format      ascii;
    class       dictionary;
    object      blockMeshDict;
}
// * * * * * * * * * * * * * * * * * * * * * * * * * * * * * * * * * * * * * //

convertToMeters 0.01;

vertices
(
    (0 0 0)
    (3 0 0)
    (6 0 0)
    (6 6 0)
    (3 6 0)
    (0 6 0)
    (0 0 0.1)
    (3 0 0.1)
    (6 0 0.1)
    (6 6 0.1)
    (3 6 0.1)
    (0 6 0.1)
);

blocks
(
    hex (0 1 4 5 6 7 10 11) (100 75 1) simpleGrading (1 1 1)
    hex (1 2 3 4 7 8 9 10) (100 75 1) simpleGrading (1 1 1)
    
);

edges
(
);

boundary
(
    anodo
    {
        type wall;
        faces
        (
            (1 7 8 2)
        );
    }
    catodo
    {
        type wall;
        faces
        (
            (3 9 10 4)
        );
    }
    aislante
    {
        type wall;
        faces
        (
            
	    (5 4 10 11)
	    (0 5 11 6)
	    (0 6 7 1)
	    (2 8 9 3)
        );
    }
    frontAndBack
    {
        type empty;
        faces
        (
            (1 2 3 4)
	    (0 1 4 5)
	    (10 9 8 7)
            (11 10 7 6)
        );
    }
);

mergePatchPairs
(
);

// ************************************************************************* //
