/*--------------------------------*- C++ -*----------------------------------*\
| =========                 |                                                 |
| \\      /  F ield         | OpenFOAM: The Open Source CFD Toolbox           |
|  \\    /   O peration     | Version:  2.4.0                                 |
|   \\  /    A nd           | Web:      www.OpenFOAM.org                      |
|    \\/     M anipulation  |                                                 |
\*---------------------------------------------------------------------------*/
FoamFile
{
    version     2.0;
    format      ascii;
    class       dictionary;
    location    "system";
    object      fvSchemes;
}
// * * * * * * * * * * * * * * * * * * * * * * * * * * * * * * * * * * * * * //

ddtSchemes
{
    default        Euler;//backward;//steadyState; 
}

gradSchemes
{
    default         leastSquares;//none;
    //grad(cellMotionU) Gauss linear;//cellLimited;//Gauss linear;
    //grad(fi) Gauss linear;//leastSquares;//

}

divSchemes
{
    default         none;
}

laplacianSchemes
{
    default         none;Gauss linear corrected;//
    laplacian(diffusivity,cellMotionU) Gauss linear orthogonal;// corrected faceCorrected limited linearFit orthogonal quadraticFit relaxed skewCorrected uncorrected
    laplacian(keff,fi) Gauss linear orthogonal; //
}

interpolationSchemes
{
    default         linear;
}

snGradSchemes
{
    default         corrected;
}

fluxRequired
{
    default         no;
    fi               ;
}


// ************************************************************************* //
